      18
 i =        0, time =        0.000, E =         0.0346152972
  C        -0.0002125033       -0.0000682612       -0.0002231501
  H        -0.0007116230        0.0000393599       -0.0001201412
  H        -0.0006219488        0.0004601963        0.0004334093
  C         0.0000107888        0.0000257899        0.0000360444
  H        -0.0003106997       -0.0007187991       -0.0001825826
  H        -0.0003630711       -0.0012590651        0.0003702242
  C         0.0001999953       -0.0000288360       -0.0000189267
  H         0.0003813527       -0.0003935477        0.0011420591
  H        -0.0006671619        0.0002123968       -0.0007532058
  C        -0.0001034348       -0.0000956497       -0.0002210878
  H        -0.0006057785        0.0010962685        0.0000905322
  H        -0.0003046288        0.0003944675        0.0010892976
  C         0.0001019752       -0.0000209860        0.0001152504
  H         0.0016524128        0.0010464885       -0.0003759398
  H        -0.0004986346       -0.0004524722        0.0000518807
  C         0.0002250499        0.0000753484        0.0001373478
  H        -0.0006781679        0.0010115489       -0.0009804300
  H         0.0000844244       -0.0000953128        0.0013142706
      18
 i =        1, time =        0.500, E =         0.0353091539
  C        -0.0001704076       -0.0000297025       -0.0002392618
  H        -0.0007139907       -0.0000697241       -0.0001610629
  H        -0.0006767744        0.0002533532        0.0005897818
  C        -0.0000193366        0.0000111820        0.0000290860
  H        -0.0003870259       -0.0007123943       -0.0001740946
  H        -0.0004039295       -0.0012768194        0.0004976272
  C         0.0001927637        0.0000020935       -0.0000941223
  H         0.0001695908       -0.0004150762        0.0010588836
  H        -0.0007747540        0.0001442269       -0.0006994899
  C        -0.0000578045       -0.0000992988       -0.0001313112
  H        -0.0006598634        0.0010620165       -0.0000018782
  H        -0.0003053468        0.0001964138        0.0010271289
  C         0.0001153473       -0.0000065100        0.0000718435
  H         0.0015162588        0.0011247141       -0.0001777198
  H        -0.0005102333       -0.0002216951        0.0000312662
  C         0.0002159269        0.0000429889        0.0001759995
  H        -0.0006570344        0.0010449217       -0.0011199755
  H         0.0001088208       -0.0001857346        0.0013667098
      18
 i =        2, time =        1.000, E =         0.0353435101
  C        -0.0001305930        0.0000075013       -0.0002529207
  H        -0.0006917206       -0.0001783359       -0.0001918908
  H        -0.0007191006        0.0000666656        0.0007109113
  C        -0.0000536897       -0.0000079039        0.0000264781
  H        -0.0004467148       -0.0007014186       -0.0001570470
  H        -0.0004210203       -0.0012500525        0.0005607129
  C         0.0001841528        0.0000347649       -0.0001691336
  H        -0.0000556140       -0.0004532659        0.0009452216
  H        -0.0008624067        0.0000496228       -0.0006381560
  C        -0.0000110237       -0.0000962270       -0.0000363482
  H        -0.0007211913        0.0009903584       -0.0001251628
  H        -0.0003031365       -0.0000215047        0.0009553575
  C         0.0001312901        0.0000076470        0.0000256722
  H         0.0013584704        0.0011976505        0.0000510995
  H        -0.0005257017        0.0000095776        0.0000128196
  C         0.0002067337        0.0000109026        0.0002127618
  H        -0.0006443220        0.0010721060       -0.0012335428
  H         0.0001379017       -0.0002653172        0.0014150544
      18
 i =        3, time =        1.500, E =         0.0346723296
  C        -0.0000942885        0.0000420180       -0.0002628196
  H        -0.0006437978       -0.0002846703       -0.0002129475
  H        -0.0007450034       -0.0000884803        0.0007839310
  C        -0.0000915500       -0.0000313863        0.0000280909
  H        -0.0004887630       -0.0006859867       -0.0001306424
  H        -0.0004141962       -0.0011769344        0.0005578624
  C         0.0001745910        0.0000676825       -0.0002428838
  H        -0.0002879514       -0.0005021515        0.0008075687
  H        -0.0009320600       -0.0000648848       -0.0005700964
  C         0.0000357560       -0.0000879382        0.0000607820
  H        -0.0007846812        0.0008905328       -0.0002650924
  H        -0.0002987553       -0.0002454831        0.0008771514
  C         0.0001483805        0.0000227000       -0.0000209534
  H         0.0011893575        0.0012582028        0.0002929365
  H        -0.0005403791        0.0002262125       -0.0000044434
  C         0.0001980348       -0.0000207003        0.0002463631
  H        -0.0006429877        0.0010940523       -0.0013155902
  H         0.0001697766       -0.0003295658        0.0014600800
      18
 i =        4, time =        2.000, E =         0.0333581371
  C        -0.0000625095        0.0000727283       -0.0002678634
  H        -0.0005707075       -0.0003869380       -0.0002256067
  H        -0.0007516515       -0.0002032066        0.0007995959
  C        -0.0001319687       -0.0000588807        0.0000334048
  H        -0.0005133221       -0.0006661558       -0.0000947034
  H        -0.0003848192       -0.0010593140        0.0004926836
  C         0.0001645257        0.0000991596       -0.0003144125
  H        -0.0005205569       -0.0005548540        0.0006538197
  H        -0.0009864257       -0.0001909804       -0.0004961732
  C         0.0000813172       -0.0000761821        0.0001568793
  H        -0.0008442462        0.0007733409       -0.0004055506
  H        -0.0002932309       -0.0004607399        0.0007959387
  C         0.0001650991        0.0000397473       -0.0000656637
  H         0.0010204071        0.0012997409        0.0005294669
  H        -0.0005496013        0.0004142307       -0.0000215530
  C         0.0001902890       -0.0000515083        0.0002757580
  H        -0.0006549251        0.0011111317       -0.0013629879
  H         0.0002027466       -0.0003748860        0.0015023216
      18
 i =        5, time =        2.500, E =         0.0315663965
  C        -0.0000360248        0.0000987997       -0.0002672482
  H        -0.0004743927       -0.0004834135       -0.0002322012
  H        -0.0007374573       -0.0002719161        0.0007530111
  C        -0.0001738045       -0.0000897089        0.0000415550
  H        -0.0005216625       -0.0006419468       -0.0000497078
  H        -0.0003356646       -0.0009026372        0.0003736315
  C         0.0001544174        0.0001274311       -0.0003828631
  H        -0.0007464980       -0.0006041529        0.0004927206
  H        -0.0010286409       -0.0003192015       -0.0004172693
  C         0.0001244220       -0.0000627736        0.0002487261
  H        -0.0008932117        0.0006500518       -0.0005298590
  H        -0.0002877660       -0.0006526935        0.0007152326
  C         0.0001799532        0.0000596433       -0.0001061840
  H         0.0008633546        0.0013166745        0.0007430961
  H        -0.0005491411        0.0005618834       -0.0000395174
  C         0.0001838138       -0.0000810846        0.0003001675
  H        -0.0006807320        0.0011229753       -0.0013751597
  H         0.0002354099       -0.0003988433        0.0015420332
      18
 i =        6, time =        3.000, E =         0.0295344301
  C        -0.0000153401        0.0001197366       -0.0002605200
  H        -0.0003581195       -0.0005724748       -0.0002358486
  H        -0.0007021235       -0.0002928023        0.0006440300
  C        -0.0002157729       -0.0001229345        0.0000514022
  H        -0.0005160690       -0.0006133678        0.0000032278
  H        -0.0002707164       -0.0007155496        0.0002132765
  C         0.0001447312        0.0001507735       -0.0004474609
  H        -0.0009592606       -0.0006430710        0.0003332415
  H        -0.0010619058       -0.0004396841       -0.0003343652
  C         0.0001638643       -0.0000494134        0.0003332594
  H        -0.0009248390        0.0005313241       -0.0006221812
  H        -0.0002836194       -0.0008081378        0.0006384370
  C         0.0001916003        0.0000828947       -0.0001404813
  H         0.0007292064        0.0013049177        0.0009183638
  H        -0.0005356164        0.0006605514       -0.0000592576
  C         0.0001787604       -0.0001088578        0.0003190961
  H        -0.0007195875        0.0011283881       -0.0013539885
  H         0.0002667417       -0.0004003243        0.0015791721
      18
 i =        7, time =        3.500, E =         0.0275224843
  C        -0.0000006983        0.0001354044       -0.0002476083
  H        -0.0002262644       -0.0006526395       -0.0002402071
  H        -0.0006465914       -0.0002680464        0.0004772975
  C        -0.0002565083       -0.0001574220        0.0000616230
  H        -0.0004996722       -0.0005804364        0.0000624147
  H        -0.0001948659       -0.0005092197        0.0000272800
  C         0.0001359284        0.0001676254       -0.0005074875
  H        -0.0011531872       -0.0006654238        0.0001839165
  H        -0.0010891422       -0.0005429611       -0.0002486207
  C         0.0001985257       -0.0000375241        0.0004077370
  H        -0.0009329162        0.0004262449       -0.0006688911
  H        -0.0002819658       -0.0009163138        0.0005686573
  C         0.0001989628        0.0001095899       -0.0001668936
  H         0.0006272980        0.0012622137        0.0010431646
  H        -0.0005068289        0.0007053958       -0.0000815488
  C         0.0001751025       -0.0001341281        0.0003323268
  H        -0.0007692568        0.0011253574       -0.0013035049
  H         0.0002961438       -0.0003795880        0.0016134083
      18
 i =        8, time =        4.000, E =         0.0257601246
  C         0.0000079069        0.0001460242       -0.0002288346
  H        -0.0000840450       -0.0007226003       -0.0002491786
  H        -0.0005729070       -0.0002036780        0.0002619394
  C        -0.0002946338       -0.0001919146        0.0000708138
  H        -0.0004762262       -0.0005431984        0.0001257047
  H        -0.0001135403       -0.0002964443       -0.0001668494
  C         0.0001284555        0.0001766988       -0.0005622549
  H        -0.0013238283       -0.0006662937        0.0000522011
  H        -0.0011127119       -0.0006207506       -0.0001614383
  C         0.0002274308       -0.0000281201        0.0004698858
  H        -0.0009123624        0.0003415698       -0.0006597897
  H        -0.0002837431       -0.0009697825        0.0005085419
  C         0.0002013222        0.0001393647       -0.0001842314
  H         0.0005644645        0.0011883036        0.0011096823
  H        -0.0004620015        0.0006957077       -0.0001069682
  C         0.0001726412       -0.0001560915        0.0003398976
  H        -0.0008262277        0.0011111674       -0.0012293957
  H         0.0003234603       -0.0003382047        0.0016441537
      18
 i =        9, time =        4.500, E =         0.0244027085
  C         0.0000107059        0.0001521405       -0.0002048929
  H         0.0000627862       -0.0007812606       -0.0002665843
  H        -0.0004840290       -0.0001091012        0.0000109237
  C        -0.0003288352       -0.0002251229        0.0000776001
  H        -0.0004498429       -0.0005017431        0.0001906394
  H        -0.0000322923       -0.0000906147       -0.0003511255
  C         0.0001227326        0.0001770729       -0.0006110846
  H        -0.0014681751       -0.0006423943       -0.0000560995
  H        -0.0011342180       -0.0006666663       -0.0000744922
  C         0.0002497966       -0.0000217189        0.0005180203
  H        -0.0008597821        0.0002812177       -0.0005890636
  H        -0.0002895002       -0.0009650222        0.0004601675
  C         0.0001983864        0.0001714095       -0.0001918440
  H         0.0005443969        0.0010849399        0.0011149605
  H        -0.0004018916        0.0006349301       -0.0001358557
  C         0.0001710241       -0.0001738810        0.0003420617
  H        -0.0008859774        0.0010826201       -0.0011383912
  H         0.0003489583       -0.0002788901        0.0016706092
      18
 i =       10, time =        5.000, E =         0.0235099114
  C         0.0000081197        0.0001545621       -0.0001768058
  H         0.0002082623       -0.0008277702       -0.0002958383
  H        -0.0003836050        0.0000036779       -0.0002598561
  C        -0.0003579324       -0.0002558196        0.0000807450
  H        -0.0004247024       -0.0004562130        0.0002546271
  H         0.0000436133        0.0000953670       -0.0005084820
  C         0.0001191579        0.0001682527       -0.0006532667
  H        -0.0015847538       -0.0005923016       -0.0001372805
  H        -0.0011544044       -0.0006767908        0.0000102915
  C         0.0002650540       -0.0000182907        0.0005510933
  H        -0.0007739094        0.0002460468       -0.0004558940
  H        -0.0002992613       -0.0009027015        0.0004249752
  C         0.0001903149        0.0002044936       -0.0001896160
  H         0.0005672368        0.0009557532        0.0010610611
  H        -0.0003287658        0.0005303490       -0.0001682901
  C         0.0001697875       -0.0001866011        0.0003392094
  H        -0.0009433463        0.0010363533       -0.0010375946
  H         0.0003732726       -0.0002052519        0.0016918201
