      18
 i =        0, time =        0.000, E =         0.0263238206
  C         0.0454421982        0.0411806116       -0.0179951651
  H        -0.0012663936       -0.0096778099       -0.0040815182
  H        -0.0053309739       -0.0190067710        0.0151454908
  C        -0.0295094212       -0.0131186058       -0.0096541213
  H        -0.0074891822        0.0003626177        0.0003982681
  H        -0.0046681617       -0.0034761184        0.0140885696
  C         0.0144136359        0.0163219507       -0.0429583398
  H        -0.0180953094       -0.0010538509       -0.0059125083
  H        -0.0104828671       -0.0047628717        0.0044157990
  C         0.0261935392        0.0073731472        0.0550935826
  H        -0.0043861813       -0.0012000598       -0.0065540912
  H        -0.0002074408       -0.0164330228       -0.0050328323
  C         0.0019643245       -0.0098810460       -0.0086977092
  H        -0.0109304063        0.0070294231        0.0158860223
  H        -0.0007581342        0.0201496534       -0.0019496246
  C         0.0010165386       -0.0086634897        0.0063561494
  H         0.0021772943        0.0032675776       -0.0134110479
  H         0.0019169406       -0.0084113352        0.0048630761
      18
 i =     5000, time =     2500.000, E =         0.0249360624
  C         0.0206263140       -0.0051028341       -0.0154918856
  H        -0.0125476296       -0.0030995132        0.0185360739
  H        -0.0110842795        0.0023536977       -0.0004030894
  C         0.0140750837        0.0211200731        0.0035912305
  H        -0.0128786749       -0.0085872214        0.0010817235
  H         0.0075636522       -0.0049557013       -0.0031131982
  C         0.0654199003        0.0297415352       -0.0439753995
  H        -0.0184830065       -0.0080977907        0.0122139950
  H        -0.0203978075       -0.0041095774        0.0035230978
  C        -0.0585462402       -0.0207884290        0.0324367538
  H         0.0090844133       -0.0019521661       -0.0002128914
  H         0.0158045155        0.0056573599       -0.0081495332
  C         0.0132173062        0.0202393608       -0.0042455214
  H         0.0014453927       -0.0116836362        0.0099282919
  H        -0.0058026106       -0.0148910057       -0.0001277009
  C        -0.0013727668        0.0259510212       -0.0161986809
  H        -0.0068661878       -0.0030313466        0.0064015334
  H         0.0007426234       -0.0187638188        0.0042051916
      18
 i =    10000, time =     5000.000, E =         0.0235512857
  C         0.0241362755        0.0043701416        0.0348961312
  H        -0.0186928626        0.0063878836       -0.0062628134
  H        -0.0018562822        0.0003612081       -0.0239581746
  C        -0.0250641939        0.0022266174       -0.0140908687
  H         0.0166133819       -0.0168341953        0.0246772125
  H         0.0066037983        0.0044790719       -0.0147113352
  C         0.0083514902       -0.0064470086        0.0403805974
  H        -0.0030265924        0.0035931168       -0.0085309569
  H         0.0205801832       -0.0168593610       -0.0253860143
  C        -0.0202545349        0.0095652389       -0.0187312902
  H        -0.0047472026        0.0084852303        0.0033685302
  H         0.0000410802        0.0036542096        0.0092866640
  C         0.0018863317        0.0135708838       -0.0228308526
  H        -0.0062238272       -0.0095414494        0.0250483066
  H        -0.0052292483        0.0161363868       -0.0060120188
  C         0.0249204712       -0.0395834907       -0.0038386035
  H        -0.0131218758        0.0094645550        0.0074334991
  H        -0.0049163945        0.0069709637       -0.0007380132
