      18
 i =        0, time =        0.000, E =         0.0263238206
  C         4.4771740290        3.6007430242        1.6203347172
  H         5.2914269130        3.4771217500        2.3360601921
  H         4.6652969305        4.2496225919        0.7169972207
  C         3.2746720958        3.3557269678        1.9885808736
  H         2.4767287195        3.6147763877        1.3124012437
  H         3.0911230531        2.7969380467        2.8728860383
  C         2.7764531924       -0.1188205648        0.6340418265
  H         3.2660025378        0.5542424065        1.3646636991
  H         3.1686867450       -1.1269840028        0.6051915358
  C         2.1055456747        0.3599258832       -0.5186560307
  H         1.8527159579       -0.3243981506       -1.3087959690
  H         1.8996878962        1.4530197400       -0.5805099683
  C         5.1116933639       -2.0515129449       -2.6233265093
  H         5.6433098294       -2.4734497456       -3.5168235713
  H         4.8023478433       -1.0447070313       -2.6095052437
  C         4.8033693772       -2.8078097646       -1.5873221126
  H         4.3144525067       -2.4671592514       -0.6606981313
  H         5.0785902421       -3.8412268455       -1.6697060378
      18
 i =     5000, time =     2500.000, E =         0.0249360624
  C         1.6452799844       -1.8808194203       -2.8061047676
  H         2.2358526339       -1.6970666172       -3.7466402982
  H         0.5821287008       -1.9716640112       -2.8539311292
  C         2.2753623577       -2.0798906074       -1.6615915502
  H         1.7871837936       -2.1456082385       -0.7070649558
  H         3.3368809375       -1.9132135215       -1.6305453613
  C         4.6885373759       -0.6282974979        0.8083637778
  H         5.5739656783       -0.9569461606        1.3674544465
  H         3.7019027622       -0.9406954527        0.9890651279
  C         5.1060563311        0.1429242629       -0.2359435477
  H         4.3507693135        0.5728073763       -0.9080964937
  H         6.1320914384        0.3931146925       -0.2872653683
  C         3.7468344139        3.3120190905        1.5893525690
  H         3.2155817957        4.1632080718        1.1129715204
  H         3.2254935723        2.4280773721        1.8571856704
  C         5.0975694210        3.4558942887        1.8163871572
  H         5.7678380255        2.6742932470        2.1643384914
  H         5.5121337224        4.4556616382        1.5401168841
      18
 i =    10000, time =     5000.000, E =         0.0235512857
  C         6.4613799149        2.5527254231        0.5515792054
  H         7.0950295634        1.9270670033        1.2270856443
  H         6.7423535128        2.5647549868       -0.4578339738
  C         5.6257145665        3.4676955579        1.0380550858
  H         5.0636403581        4.1397861377        0.3005828482
  H         5.3560368587        3.4551171545        2.1190575659
  C         3.5199925133        0.3175924078        0.5608651880
  H         3.3147738626        0.7718122617       -0.3861556363
  H         2.9514713857        0.7106183318        1.4789171515
  C         4.4959598727       -0.6871516075        0.6219454714
  H         4.7691064820       -1.2489102231        1.5170951064
  H         4.9354157185       -1.0128674403       -0.3352691425
  C         1.2417441966       -1.5954388886       -2.2849990961
  H         1.6598898277       -2.2550549874       -3.0762509918
  H         0.8917289073       -0.6717021354       -2.6577725393
  C         1.2145122558       -1.7179884886       -0.9733858818
  H         0.9950718231       -0.8833271953       -0.3551316209
  H         1.6493780171       -2.6253176687       -0.5274817214
