      18
 i =        0, time =        0.000, E =         0.0378328318
  C         0.0875304072        0.0497564166       -0.0308839764
  H        -0.0012663541       -0.0096777346       -0.0040814747
  H        -0.0053309289       -0.0190067021        0.0151454968
  C        -0.0715977800       -0.0216910920        0.0032354667
  H        -0.0074891805        0.0003628792        0.0003983651
  H        -0.0046681345       -0.0034759128        0.0140887474
  C        -0.0068180357        0.0314717357       -0.0794381417
  H        -0.0180951394       -0.0010572174       -0.0059134027
  H        -0.0104830883       -0.0047628414        0.0044159701
  C         0.0474254097       -0.0077777961        0.0915726750
  H        -0.0043863561       -0.0012000594       -0.0065539678
  H        -0.0002072268       -0.0164329027       -0.0050327721
  C         0.0019643244       -0.0098810441       -0.0086977136
  H        -0.0109303825        0.0070294069        0.0158859999
  H        -0.0007579774        0.0201495836       -0.0019497927
  C         0.0010165361       -0.0086634930        0.0063561526
  H         0.0021769324        0.0032681553       -0.0134106865
  H         0.0019169742       -0.0084113818        0.0048630545
      18
 i =        1, time =        0.500, E =         0.0385432943
  C         0.0852347716        0.0489157325       -0.0289808971
  H         0.0009162537       -0.0097062540       -0.0031727685
  H        -0.0043688915       -0.0177266837        0.0126112886
  C        -0.0758088925       -0.0262523852        0.0077539226
  H        -0.0061531853        0.0007742776        0.0010937024
  H        -0.0026441158        0.0002831799        0.0086102042
  C        -0.0084997235        0.0340441012       -0.0798449422
  H        -0.0195528699       -0.0027768739       -0.0088754573
  H        -0.0086451526       -0.0073569791        0.0051338133
  C         0.0492307794        0.0000483524        0.0985960563
  H        -0.0052297024       -0.0048891365       -0.0098749834
  H         0.0000798293       -0.0187778418       -0.0060197019
  C         0.0055733388       -0.0105109048       -0.0132511537
  H        -0.0133082509        0.0068682168        0.0194284186
  H        -0.0012994709        0.0208136082       -0.0016830567
  C         0.0004425816       -0.0088249313        0.0055215357
  H         0.0016133878        0.0026744637       -0.0114754666
  H         0.0024193134       -0.0075999418        0.0044294855
      18
 i =        2, time =        1.000, E =         0.0384697438
  C         0.0804588979        0.0463147669       -0.0252925221
  H         0.0033890282       -0.0095551135       -0.0022054456
  H        -0.0029246830       -0.0152644531        0.0087105434
  C        -0.0782968408       -0.0306488740        0.0120220959
  H        -0.0048158481        0.0011666270        0.0018538823
  H        -0.0006344546        0.0042954843        0.0028416679
  C        -0.0097394068        0.0351605800       -0.0790481522
  H        -0.0204847266       -0.0040191926       -0.0113333201
  H        -0.0069380218       -0.0094626693        0.0057701312
  C         0.0498623436        0.0064586077        0.1025588895
  H        -0.0056740526       -0.0078503299       -0.0120429682
  H         0.0003133650       -0.0199645995       -0.0067400471
  C         0.0080228605       -0.0091559810       -0.0163460360
  H        -0.0149071690        0.0060472556        0.0216164707
  H        -0.0014284754        0.0199827546       -0.0014381490
  C         0.0002402263       -0.0094800688        0.0041482826
  H         0.0008100034        0.0022045765       -0.0090878271
  H         0.0027469538       -0.0062293708        0.0040125037
      18
 i =        3, time =        1.500, E =         0.0375808133
  C         0.0734750306        0.0421514224       -0.0200102541
  H         0.0059989613       -0.0092232551       -0.0012834284
  H        -0.0010993699       -0.0118127617        0.0037422154
  C        -0.0788643710       -0.0345737588        0.0156256919
  H        -0.0035623819        0.0015418609        0.0026332448
  H         0.0012312098        0.0082463796       -0.0027603245
  C        -0.0105135425        0.0345633917       -0.0771747992
  H        -0.0208202920       -0.0046782656       -0.0131404849
  H        -0.0054446004       -0.0108962268        0.0063288651
  C         0.0492284125        0.0110992876        0.1031866130
  H        -0.0056140749       -0.0098969387       -0.0128342453
  H         0.0004657348       -0.0198552778       -0.0071637535
  C         0.0091362927       -0.0059057542       -0.0177895682
  H        -0.0155786734        0.0045765927        0.0223007113
  H        -0.0011289667        0.0177280906       -0.0012265701
  C         0.0003356087       -0.0105014588        0.0023950655
  H        -0.0001598807        0.0018154072       -0.0064221829
  H         0.0029149028       -0.0043787353        0.0035932042
      18
 i =        4, time =        2.000, E =         0.0359652744
  C         0.0646341922        0.0367223607       -0.0134278090
  H         0.0085836549       -0.0087151001       -0.0005120356
  H         0.0009829724       -0.0076505776       -0.0019091648
  C        -0.0773810628       -0.0377256201        0.0181934531
  H        -0.0024677815        0.0019004167        0.0033860405
  H         0.0028333074        0.0118213281       -0.0077640536
  C        -0.0108048313        0.0321064154       -0.0743441720
  H        -0.0205314468       -0.0046975464       -0.0141947229
  H        -0.0042186548       -0.0115246770        0.0068109023
  C         0.0472810359        0.0138032767        0.1003704579
  H        -0.0049762662       -0.0109378508       -0.0121369857
  H         0.0005165795       -0.0184141628       -0.0072747083
  C         0.0088551363       -0.0010196891       -0.0175210497
  H        -0.0152457383        0.0025229961        0.0214501482
  H        -0.0004274086        0.0142319880       -0.0010550114
  C         0.0006209733       -0.0117065338        0.0004437606
  H        -0.0012045434        0.0014486765       -0.0036660537
  H         0.0029498819       -0.0021657005        0.0031510042
      18
 i =        5, time =        2.500, E =         0.0338222848
  C         0.0543411544        0.0303999397       -0.0059204977
  H         0.0109828434       -0.0080397063        0.0000111008
  H         0.0031868660       -0.0031212343       -0.0078032680
  C        -0.0737957774       -0.0398358311        0.0194250444
  H        -0.0015925019        0.0022414170        0.0040696861
  H         0.0040723260        0.0147334348       -0.0117937836
  C        -0.0106034489        0.0277688555       -0.0706564549
  H        -0.0196343620       -0.0040729601       -0.0144469611
  H        -0.0032814383       -0.0112777045        0.0072109164
  C         0.0440247551        0.0145990644        0.0941826345
  H        -0.0037296400       -0.0109809842       -0.0099631117
  H         0.0004550971       -0.0157124588       -0.0070738261
  C         0.0072459002        0.0050966950       -0.0156140993
  H        -0.0139113234        0.0000018792        0.0191541542
  H         0.0006092629        0.0097736076       -0.0009261833
  C         0.0009640646       -0.0128735684       -0.0015188941
  H        -0.0022214613        0.0010367026       -0.0010031403
  H         0.0028876836        0.0002628519        0.0026666837
      18
 i =        6, time =        3.000, E =         0.0314251216
  C         0.0430284502        0.0236036838        0.0020807210
  H         0.0130490077       -0.0072102439        0.0002048782
  H         0.0053771758        0.0013953186       -0.0134777036
  C        -0.0681447910       -0.0406936675        0.0191137682
  H        -0.0009790401        0.0025630299        0.0046476642
  H         0.0048771340        0.0167483647       -0.0145564388
  C        -0.0099084582        0.0216597412       -0.0661854635
  H        -0.0181872712       -0.0028518396       -0.0139064397
  H        -0.0026220277       -0.0101549455        0.0075159738
  C         0.0395224770        0.0137010768        0.0848779378
  H        -0.0018937956       -0.0101269836       -0.0064503728
  H         0.0002821329       -0.0119235242       -0.0065796681
  C         0.0044959120        0.0119273244       -0.0122684195
  H        -0.0116602027       -0.0028342797        0.0156145874
  H         0.0018795947        0.0047067197       -0.0008396968
  C         0.0012199743       -0.0137620256       -0.0033191576
  H        -0.0031061862        0.0005095856        0.0014027281
  H         0.0027699140        0.0027426651        0.0021251017
      18
 i =        7, time =        3.500, E =         0.0290671066
  C         0.0311318134        0.0167683643        0.0101184681
  H         0.0146562723       -0.0062438436        0.0000125331
  H         0.0074294371        0.0055140545       -0.0184830567
  C        -0.0605545260       -0.0401668394        0.0171626208
  H        -0.0006496323        0.0028629685        0.0050918722
  H         0.0052107419        0.0177044820       -0.0158620281
  C        -0.0087292726        0.0140129089       -0.0609763121
  H        -0.0162843203       -0.0011278860       -0.0126414906
  H        -0.0022011388       -0.0082278581        0.0077061916
  C         0.0338971282        0.0114828891        0.0728811448
  H         0.0004572198       -0.0085545382       -0.0018539781
  H         0.0000117737       -0.0073090668       -0.0058266949
  C         0.0008985737        0.0188894324       -0.0077917844
  H        -0.0086539790       -0.0058096951        0.0111287034
  H         0.0032568725       -0.0005683974       -0.0007929354
  C         0.0012445141       -0.0141356235       -0.0048117580
  H        -0.0037618599       -0.0001967526        0.0034212326
  H         0.0026403820        0.0051054011        0.0015172722
      18
 i =        8, time =        4.000, E =         0.0270038980
  C         0.0190678694        0.0103106846        0.0177396732
  H         0.0157070837       -0.0051616766       -0.0005923312
  H         0.0092374857        0.0088776997       -0.0224165224
  C        -0.0512371527       -0.0382153760        0.0135922642
  H        -0.0006052184        0.0031390477        0.0053842771
  H         0.0050728974        0.0175265884       -0.0156364262
  C        -0.0070870598        0.0051728035       -0.0550481627
  H        -0.0140461626        0.0009672977       -0.0107755861
  H        -0.0019577470       -0.0056357650        0.0077573042
  C         0.0273282654        0.0084365441        0.0587609711
  H         0.0031964104       -0.0064994926        0.0034719444
  H        -0.0003279891       -0.0021975871       -0.0048617298
  C        -0.0031703064        0.0253826155       -0.0025745114
  H        -0.0051196775       -0.0087397436        0.0060642236
  H         0.0046007179       -0.0056367887       -0.0007819373
  C         0.0009077620       -0.0137867091       -0.0058905357
  H        -0.0041086029       -0.0011324051        0.0049655038
  H         0.0025414248        0.0071922625        0.0008415809
      18
 i =        9, time =        4.500, E =         0.0254010934
  C         0.0069634242        0.0045281847        0.0246005744
  H         0.0161691523       -0.0039841843       -0.0015923471
  H         0.0107376505        0.0112092748       -0.0249720643
  C        -0.0402211328       -0.0348328577        0.0084616253
  H        -0.0008606924        0.0033872457        0.0055093221
  H         0.0044753754        0.0162129883       -0.0139024772
  C        -0.0050161259       -0.0044279146       -0.0484018700
  H        -0.0116081352        0.0032752652       -0.0084785449
  H        -0.0018174732       -0.0025762125        0.0076446823
  C         0.0200436924        0.0051222922        0.0431929093
  H         0.0061510302       -0.0042303616        0.0091017276
  H        -0.0006960331        0.0030430201       -0.0037395715
  C        -0.0072168442        0.0309975717        0.0027203463
  H        -0.0013524939       -0.0114499081        0.0008646555
  H         0.0057715375       -0.0101333309       -0.0007856815
  C         0.0000417102       -0.0127199346       -0.0062749578
  H        -0.0040749051       -0.0023229383        0.0059658019
  H         0.0025102626        0.0089018003        0.0000858703
      18
 i =       10, time =        5.000, E =         0.0243419324
  C        -0.0045943870       -0.0002200717        0.0302677624
  H         0.0159769754       -0.0027456104       -0.0029564363
  H         0.0118483289        0.0122733551       -0.0259007892
  C        -0.0281180152       -0.0302396239        0.0020979823
  H        -0.0013387871        0.0036091698        0.0054806385
  H         0.0035116189        0.0138934541       -0.0108475114
  C        -0.0025549590       -0.0143036820       -0.0410150399
  H        -0.0091075924        0.0056232479       -0.0059541092
  H        -0.0017021360        0.0007102481        0.0073479421
  C         0.0122967737        0.0021205869        0.0268977902
  H         0.0091152849       -0.0020227315        0.0145730188
  H        -0.0010403006        0.0080357386       -0.0025184177
  C        -0.0108691082        0.0350700769        0.0078788410
  H         0.0023657657       -0.0137724788       -0.0040965597
  H         0.0066377689       -0.0136771149       -0.0008173457
  C        -0.0013472863       -0.0106750062       -0.0061882173
  H        -0.0036566503       -0.0037726361        0.0064691823
  H         0.0025767049        0.0100930793       -0.0007187306
